6

 C                 -1.00604568    0.58268795   -0.03917771
 H                 -0.49186795   -0.37286142   -0.03917771
 H                 -2.09064423    0.54966022   -0.03917771
 C                 -0.34346191    1.73089975   -0.03917771
 H                 -0.84549509    2.67944102    0.12108917
 H                  0.72899261    1.77093528   -0.19943788
