7
T=    1840.000000000000
C       0.615327427281      -0.246621879585      -0.029637658797
H       1.316421561094      -1.110772757903      -0.028514406629
C      -0.867387197875       0.046945776508      -0.024688041512
H      -1.359860727732       0.649288647732      -1.000979940008
H      -1.304822729699      -1.005452946588      -0.061733364227
H      -1.381758052286       0.622740270869       0.896107284673
O       1.529150651209       1.428846308926      -0.033140232396
